# @coding = utf-8
# @Author: Mengsen.Wang
# @Date: 2020-05-21 15:15:49
# @Last Modified by:   Mengsen.Wang
# @Last Modified time: 2020-05-21 15:15:49
# @Description: Elastic frame time history analysis

reset
wipe
puts "System"
model basic -ndm 3 -ndf 6

puts "node"
source nodes.tcl

puts "mass"
source mass.tcl
puts "node"
puts "material"
uniaxialMaterial Elastic 1 1.999E+005
uniaxialMaterial Elastic 2 2.680E+004
uniaxialMaterial Elastic 3 1.999E+005
puts "transformation"
geomTransf Linear 1 1.000 0.000 0.000 
geomTransf Linear 2 1.000 0.000 0.000 
geomTransf Linear 3 1.000 0.000 0.000 
geomTransf Linear 4 1.000 0.000 0.000 
geomTransf Linear 5 0.000 0.000 1.000 
geomTransf Linear 6 0.000 0.000 1.000 
geomTransf Linear 7 0.000 0.000 1.000 
geomTransf Linear 8 0.000 0.000 1.000 
geomTransf Linear 9 1.000 0.000 0.000 
geomTransf Linear 10 1.000 0.000 0.000 
geomTransf Linear 11 1.000 0.000 0.000 
geomTransf Linear 12 1.000 0.000 0.000 
geomTransf Linear 13 1.000 0.000 0.000 
geomTransf Linear 14 1.000 0.000 0.000 
geomTransf Linear 15 0.000 0.000 1.000 
geomTransf Linear 16 0.000 0.000 1.000 
geomTransf Linear 17 0.000 0.000 1.000 
geomTransf Linear 18 0.000 0.000 1.000 
geomTransf Linear 19 0.000 0.000 1.000 
geomTransf Linear 20 0.000 0.000 1.000 
# ... 27 like lines cut
puts "element"
element elasticBeamColumn 1 1 2 1.600E+005 2.680E+004 1.117E+004 3.605E+009 2.133E+009 2.133E+009 1
element elasticBeamColumn 2 3 4 1.600E+005 2.680E+004 1.117E+004 3.605E+009 2.133E+009 2.133E+009 2
element elasticBeamColumn 3 5 6 1.600E+005 2.680E+004 1.117E+004 3.605E+009 2.133E+009 2.133E+009 3
element elasticBeamColumn 4 7 8 1.600E+005 2.680E+004 1.117E+004 3.605E+009 2.133E+009 2.133E+009 4
element elasticBeamColumn 5 6 8 1.800E+005 2.680E+004 1.117E+004 3.708E+009 5.400E+009 1.350E+009 5
element elasticBeamColumn 6 4 2 1.800E+005 2.680E+004 1.117E+004 3.708E+009 5.400E+009 1.350E+009 6
element elasticBeamColumn 7 8 2 1.500E+005 2.680E+004 1.117E+004 2.817E+009 3.125E+009 1.125E+009 7
element elasticBeamColumn 8 6 4 1.500E+005 2.680E+004 1.117E+004 2.817E+009 3.125E+009 1.125E+009 8
element elasticBeamColumn 9 9 3 1.600E+005 2.680E+004 1.117E+004 3.605E+009 2.133E+009 2.133E+009 9
element elasticBeamColumn 10 10 1 1.600E+005 2.680E+004 1.117E+004 3.605E+009 2.133E+009 2.133E+009 10
element elasticBeamColumn 11 11 5 2.400E+005 2.680E+004 1.117E+004 7.512E+009 7.200E+009 3.200E+009 11
element elasticBeamColumn 12 12 7 2.400E+005 2.680E+004 1.117E+004 7.512E+009 7.200E+009 3.200E+009 12
element elasticBeamColumn 13 13 14 2.400E+005 2.680E+004 1.117E+004 7.512E+009 7.200E+009 3.200E+009 13
element elasticBeamColumn 14 15 16 2.400E+005 2.680E+004 1.117E+004 7.512E+009 7.200E+009 3.200E+009 14
element elasticBeamColumn 15 7 1 1.500E+005 2.680E+004 1.117E+004 2.817E+009 3.125E+009 1.125E+009 15
element elasticBeamColumn 16 1 16 1.500E+005 2.680E+004 1.117E+004 2.817E+009 3.125E+009 1.125E+009 16
element elasticBeamColumn 17 3 14 1.500E+005 2.680E+004 1.117E+004 2.817E+009 3.125E+009 1.125E+009 17
element elasticBeamColumn 18 5 3 1.500E+005 2.680E+004 1.117E+004 2.817E+009 3.125E+009 1.125E+009 18
element elasticBeamColumn 19 3 1 1.800E+005 2.680E+004 1.117E+004 3.708E+009 5.400E+009 1.350E+009 19
element elasticBeamColumn 20 14 16 1.800E+005 2.680E+004 1.117E+004 3.708E+009 5.400E+009 1.350E+009 20
# ... 27 like lines cut
puts "recorder"
recorder Node -file node8.out -time -node 8 -dof 1 disp
recorder Node -file node0.out -time -nodeRange 1 28 -dof 1 2 3 disp
 
set xDamp 0.05;
set nEigenI 1;
set nEigenJ 2;
set lambdaN [eigen [expr $nEigenJ]];
set lambdaI [lindex $lambdaN [expr $nEigenI-1]];
set lambdaJ [lindex $lambdaN [expr $nEigenJ-1]];
set omegaI [expr pow($lambdaI,0.5)]; 
set omegaJ [expr pow($lambdaJ,0.5)];
set alphaM [expr $xDamp*(2*$omegaI*$omegaJ)/($omegaI+$omegaJ)]; 
set betaKcurr [expr 2.*$xDamp/($omegaI+$omegaJ)];   
rayleigh $alphaM $betaKcurr 0 0  
  
set IDloadTag 1001;
set iGMfile "GM1X.txt";
set iGMdirection "1"; 
set iGMfact "0.138";  
set dt 0.02;   
foreach GMdirection $iGMdirection GMfile $iGMfile GMfact $iGMfact { 
incr IDloadTag; 
set GMfatt [expr 1*$GMfact];  
set AccelSeries "Series -dt $dt -filePath $iGMfile -factor  $GMfatt";
pattern UniformExcitation  $IDloadTag  $GMdirection -accel  $AccelSeries; 
}  
  
constraints Transformation; 
numberer Plain;  
system UmfPack; 
test EnergyIncr 1.0e-4 200; 
algorithm Newton 
integrator Newmark 0.5 0.25 
analysis Transient
analyze 1000 0.02
