# @Author: Mengsen.Wang
# @Date: 2020-06-17 16:35:24
# @Last Modified by:   Mengsen.Wang
# @Last Modified time: 2020-06-17 17:00:24
# @Description: Section steel concrete colunm

reset
wipe

source Cyclic.tcl
ModelInfo_Proc model_log.log

puts "System"
model basic -ndm 3 -ndf 6

puts "nodes"
node 1 0.000E+000 1.800E+004 0.000E+000
node 2 0.000E+000 1.800E+004 3.000E+003

mass 1 2.305E+000 2.305E+000 0.000E+000 0.000E+000 0.000E+000 0.000E+000
mass 2 2.305E+000 2.305E+000 0.000E+000 0.000E+000 0.000E+000 0.000E+000

fix 1 1 1 1 1 1 1
fix 2 0 1 0 1 0 1

puts "material"

uniaxialMaterial Concrete01 1 -27.5 -0.002 -10 -0.0035
uniaxialMaterial Concrete01 2 -27.5 -0.002 -10 -0.0035
uniaxialMaterial Elastic 3 1.999E+005
uniaxialMaterial Steel01 4 400 205000 0.001
uniaxialMaterial Steel01 5 360 205000 0.001

##NC800X800
section Fiber 1 -GJ 1 {
fiber -3.2400E+002 -3.2400E+002 5.1840E+003 2
fiber -3.2400E+002 -2.5200E+002 5.1840E+003 2
fiber -3.2400E+002 -1.8000E+002 5.1840E+003 2
fiber -3.2400E+002 -1.0800E+002 5.1840E+003 2
fiber -3.2400E+002 -3.6000E+001 5.1840E+003 2
fiber -3.2400E+002 3.6000E+001 5.1840E+003 2
fiber -3.2400E+002 1.0800E+002 5.1840E+003 2
fiber -3.2400E+002 1.8000E+002 5.1840E+003 2
fiber -3.2400E+002 2.5200E+002 5.1840E+003 2
fiber -3.2400E+002 3.2400E+002 5.1840E+003 2
fiber -2.5200E+002 -3.2400E+002 5.1840E+003 2
fiber -2.5200E+002 -2.5200E+002 5.1840E+003 2
fiber -2.5200E+002 -1.8000E+002 5.1840E+003 2
fiber -2.5200E+002 -1.0800E+002 5.1840E+003 2
fiber -2.5200E+002 -3.6000E+001 5.1840E+003 2
fiber -2.5200E+002 3.6000E+001 5.1840E+003 2
fiber -2.5200E+002 1.0800E+002 5.1840E+003 2
fiber -2.5200E+002 1.8000E+002 5.1840E+003 2
fiber -2.5200E+002 2.5200E+002 5.1840E+003 2
fiber -2.5200E+002 3.2400E+002 5.1840E+003 2
# ... 168 like lines cut
}


puts "transformation"
geomTransf Linear 1 1.000 0.000 0.000

puts "element"
element nonlinearBeamColumn 1 1 2 4 1 1

puts "recorder"
recorder Node -file output/node2.out -time -node 2 -dof 1 2 3 disp

puts "gravity"
## Load Case = DEAD
pattern Plain 1 Linear {
load 2 0.000E+000 0.000E+000 -1.000E+007 0.000E+000 0.000E+000 0.000E+000
}

puts "analysis"
constraints Plain
numberer Plain
system BandGeneral
test EnergyIncr 1.0e-6 200
algorithm Newton
integrator LoadControl 0.1
analysis Static
analyze 10

loadConst 0.0

puts "pushover"
## Load Case = P1
pattern Plain 3 Linear {
load 2 1.000E+003 0.000E+000 0.000E+000 0.000E+000 0.000E+000 0.000E+000
}

puts "analysis"
constraints Plain
numberer Plain
system BandGeneral
test EnergyIncr 1.0e-6 200
algorithm Newton
integrator DisplacementControl 2 1 0.4
analysis Static
analyze 100

ModelInfo_Proc model_info.log

wipe
reset