
wipe

model basic -ndm 3 -ndf 6
# Define Node

node 101   0    0   0
node 201   0    0   310
node 301   0    0   620
node 401   0    0   930
node 501   0    0   1240
node 601   0    0   1550
node 701   0    0   1860
node 801   0    0   2170
node 901   0    0   2480
node 1001   0    0   2790
node 1101   0    0   3100
node 102   200    0   0
node 202   200    0   310
node 302   200    0   620
node 402   200    0   930
node 502   200    0   1240
node 602   200    0   1550
node 702   200    0   1860
node 802   200    0   2170
node 902   200    0   2480
# ... 79 like lines cut


fix  101  1 1 1 1 1 1
fix  102  1 1 1 1 1 1
fix  103  1 1 1 1 1 1
fix  104  1 1 1 1 1 1
fix  105  1 1 1 1 1 1
fix  106  1 1 1 1 1 1
fix  107  1 1 1 1 1 1
fix  108  1 1 1 1 1 1
fix  109  1 1 1 1 1 1



nDMaterial PlaneStressUserMaterial    2       40         7      23.03    2.303    -8.61   -0.0022    -0.008    0.001  0.05
nDMaterial   PlateFromPlaneStress     4         2                 1.2e4

# steel-10
uniaxialMaterial Steel02     7    479.6   200000   0.002817  18.5  0.925  0.15 
nDMaterial   PlateRebar      9        7     90
nDMaterial   PlateRebar      10       7      0
# steel-12
uniaxialMaterial Steel02     8   503.8   200000   0.002389  18.5  0.925  0.15
nDMaterial   PlateRebar      11        8     90


#Confined
section   LayeredShell      111    10     4 20   10 0.549   10 0.42    4 39.516   4 39.516   4 39.516   4 39.516    10 0.42   10 0.549  4 20 
##UnConfined
section   LayeredShell      222    8      4 20   10 0.42   11 0.3925   4 79.187   4 79.187   11 0.3925   10 0.42  4 20 


element ShellMITC4 101 101 102 202 201 111
element ShellMITC4 102 102 103 203 202 111
element ShellMITC4 103 103 104 204 203  222
element ShellMITC4 104 104 105 205 204  222
element ShellMITC4 105 105 106 206 205  222
element ShellMITC4 106 106 107 207 206  222
element ShellMITC4 107 107 108 208 207 111
element ShellMITC4 108 108 109 209 208 111
element ShellMITC4 201 201 202 302 301 111
element ShellMITC4 202 202 203 303 302 111
element ShellMITC4 203 203 204 304 303  222
element ShellMITC4 204 204 205 305 304  222
element ShellMITC4 205 205 206 306 305  222
element ShellMITC4 206 206 207 307 306  222
element ShellMITC4 207 207 208 308 307 111
element ShellMITC4 208 208 209 309 308 111
element ShellMITC4 301 301 302 402 401 111
element ShellMITC4 302 302 303 403 402 111
element ShellMITC4 303 303 304 404 403  222
element ShellMITC4 304 304 305 405 404  222
# ... 60 like lines cut

element truss 1010 101 201 226.08 8
element truss 2010 201 301 226.08 8
element truss 3010 301 401 226.08 8
element truss 4010 401 501 226.08 8
element truss 5010 501 601 226.08 8
element truss 6010 601 701 226.08 8
element truss 7010 701 801 226.08 8
element truss 8010 801 901 226.08 8
element truss 9010 901 1001 226.08 8
element truss 10010 1001 1101 226.08 8
element truss 1020 102 202 226.08 8
element truss 2020 202 302 226.08 8
element truss 3020 302 402 226.08 8
element truss 4020 402 502 226.08 8
element truss 5020 502 602 226.08 8
element truss 6020 602 702 226.08 8
element truss 7020 702 802 226.08 8
element truss 8020 802 902 226.08 8
element truss 9020 902 1002 226.08 8
element truss 10020 1002 1102 226.08 8
# ... 40 like lines cut

set LoadNode 1105

recorder Node -file disp1.txt -time -node $LoadNode -dof 1  disp
recorder Node -file force1.txt -time -node $LoadNode -dof 1  reaction



pattern Plain 1 Linear {
    load $LoadNode 0 0 -730000 0 0 0
}
constraints Penalty 1e20 1e20       
numberer RCM
system BandGeneral
test NormDispIncr 1.0e-6 2000 ;
#algorithm BFGS -count 100
algorithm KrylovNewton   
integrator LoadControl 0.1;             
analysis Static             
analyze 10;                 
loadConst -time 0.0;


timeSeries Path 1 -dt 0.1 -filePath jiazai.txt 
pattern Plain 2 1 {
    sp $LoadNode 1 1
}
constraints Penalty 1e20 1e20                 
numberer RCM                    
system BandGeneral              
test NormDispIncr 1.0e-1 2000               
algorithm KrylovNewton       
integrator LoadControl 0.1          
analysis Static 
analyze 1550
